Conversion/Nando_final/dss_files/net_2_Rural_KLO14/04_MV_Lines.dss
New Line.mv_f0_l0 bus1=mv_f0_n2831.1.2.3 bus2=mv_f0_n10.1.2.3 phases=3 length=0.066004 units=km linecode=lc_46-3ph enabled=true
New Line.mv_f0_l1 bus1=mv_f0_n396.1.2.3 bus2=mv_f0_n3138.1.2.3 phases=3 length=0.081246 units=km linecode=lc_46-3ph enabled=true
New Line.mv_f0_l2 bus1=mv_f0_n627.1.2.3 bus2=mv_f0_n629.1.2.3 phases=3 length=0.045588 units=km linecode=lc_183-3ph enabled=true
New Line.mv_f0_l3 bus1=mv_f0_n3743.1.2.3 bus2=mv_f0_n3446.1.2.3 phases=3 length=0.052368 units=km linecode=lc_183-3ph enabled=true
New Line.mv_f0_l4 bus1=mv_f0_n2946.1.2.3 bus2=mv_f0_n2902.1.2.3 phases=3 length=0.131121 units=km linecode=lc_244-3ph enabled=true
New Line.mv_f0_l5 bus1=mv_f0_n444.1.2.3 bus2=mv_f0_n3743.1.2.3 phases=3 length=0.034848 units=km linecode=lc_183-3ph enabled=true
New Line.mv_f0_l6 bus1=mv_f0_n358.1.2.3 bus2=mv_f0_n337.1.2.3 phases=3 length=0.013058 units=km linecode=lc_46-3ph enabled=true
New Line.mv_f0_l7 bus1=mv_f0_n2946.1.2.3 bus2=mv_f0_n2925.1.2.3 phases=3 length=0.28224 units=km linecode=lc_244-3ph enabled=true
New Line.mv_f0_l8 bus1=mv_f0_n2653.1.2.3 bus2=mv_f0_n2992.1.2.3 phases=3 length=0.009891 units=km linecode=lc_251-3ph enabled=true
New Line.mv_f0_l9 bus1=mv_f0_n3479.1 bus2=mv_f0_n3807.1 phases=1 length=0.015999 units=km linecode=lc_244-1ph enabled=true
New Line.mv_f0_l10 bus1=mv_f0_n2514.1 bus2=mv_f0_n2368.1 phases=1 length=0.003497 units=km linecode=lc_244-1ph enabled=true
New Line.mv_f0_l11 bus1=mv_f0_n2712.1.2.3 bus2=mv_f0_n1845.1.2.3 phases=3 length=0.065052 units=km linecode=lc_212-3ph enabled=true
New Line.mv_f0_l12 bus1=mv_f0_n1762.1.2.3 bus2=mv_f0_n1502.1.2.3 phases=3 length=0.226474 units=km linecode=lc_46-3ph enabled=true
New Line.mv_f0_l13 bus1=mv_f0_n3142.1.2.3 bus2=mv_f0_n3123.1.2.3 phases=3 length=0.067434 units=km linecode=lc_183-3ph enabled=true
New Line.mv_f0_l14 bus1=mv_f0_n19.1.2.3 bus2=mv_f0_n2061.1.2.3 phases=3 length=0.098914 units=km linecode=lc_46-3ph enabled=true
New Line.mv_f0_l15 bus1=mv_f0_n1845.1.2.3 bus2=mv_f0_n888.1.2.3 phases=3 length=0.073893 units=km linecode=lc_212-3ph enabled=true
New Line.mv_f0_l16 bus1=mv_f0_n765.1.2.3 bus2=mv_f0_n1762.1.2.3 phases=3 length=0.109488 units=km linecode=lc_46-3ph enabled=true
New Line.mv_f0_l17 bus1=mv_f0_n2432.1.2.3 bus2=mv_f0_n3628.1.2.3 phases=3 length=0.058655 units=km linecode=lc_46-3ph enabled=true
New Line.mv_f0_l18 bus1=mv_f0_n2269.1.2.3 bus2=mv_f0_n786.1.2.3 phases=3 length=0.101582 units=km linecode=lc_183-3ph enabled=true
New Line.mv_f0_l19 bus1=mv_f0_n1543.1.2.3 bus2=mv_f0_n1541.1.2.3 phases=3 length=0.000997 units=km linecode=lc_46-3ph enabled=true
New Line.mv_f0_l20 bus1=mv_f0_n3809.1.2.3 bus2=mv_f0_n3832.1.2.3 phases=3 length=0.043524 units=km linecode=lc_168-3ph enabled=true
New Line.mv_f0_l21 bus1=mv_f0_n662.1.2.3 bus2=mv_f0_n2924.1.2.3 phases=3 length=0.085657 units=km linecode=lc_212-3ph enabled=true
New Line.mv_f0_l22 bus1=mv_f0_n2902.1.2.3 bus2=mv_f0_n2968.1.2.3 phases=3 length=0.144716 units=km linecode=lc_244-3ph enabled=true
New Line.mv_f0_l23 bus1=mv_f0_n2924.1.2.3 bus2=mv_f0_n3715.1.2.3 phases=3 length=0.07479 units=km linecode=lc_212-3ph enabled=true
New Line.mv_f0_l24 bus1=mv_f0_n3807.1 bus2=mv_f0_n23.1 phases=1 length=0.017192 units=km linecode=lc_244-1ph enabled=true
New Line.mv_f0_l25 bus1=mv_f0_n2720.1.2.3 bus2=mv_f0_n1344.1.2.3 phases=3 length=0.240269 units=km linecode=lc_25-3ph enabled=true
New Line.mv_f0_l26 bus1=mv_f0_n3694.1.2.3 bus2=mv_f0_n2741.1.2.3 phases=3 length=0.000975 units=km linecode=lc_46-3ph enabled=true
New Line.mv_f0_l27 bus1=mv_f0_n915.1.2.3 bus2=mv_f0_n917.1.2.3 phases=3 length=0.270674 units=km linecode=lc_46-3ph enabled=true
New Line.mv_f0_l28 bus1=mv_f0_n3642.1.2.3 bus2=mv_f0_n2831.1.2.3 phases=3 length=0.076242 units=km linecode=lc_46-3ph enabled=true
New Line.mv_f0_l29 bus1=mv_f0_n3151.1.2.3 bus2=mv_f0_n3142.1.2.3 phases=3 length=0.067593 units=km linecode=lc_183-3ph enabled=true
New Line.mv_f0_l30 bus1=mv_f0_n1543.1.2.3 bus2=mv_f0_n1565.1.2.3 phases=3 length=0.205485 units=km linecode=lc_46-3ph enabled=true
New Line.mv_f0_l31 bus1=mv_f0_n1323.1.2.3 bus2=mv_f0_n3068.1.2.3 phases=3 length=0.745195 units=km linecode=lc_25-3ph enabled=true
New Line.mv_f0_l32 bus1=mv_f0_n2365.1.2.3 bus2=mv_f0_n1228.1.2.3 phases=3 length=0.269508 units=km linecode=lc_44-3ph enabled=true
New Line.mv_f0_l33 bus1=mv_f0_n3131.1.2.3 bus2=mv_f0_n3151.1.2.3 phases=3 length=0.071795 units=km linecode=lc_183-3ph enabled=true
New Line.mv_f0_l34 bus1=mv_f0_n10.1.2.3 bus2=mv_f0_n35.1.2.3 phases=3 length=0.05869 units=km linecode=lc_46-3ph enabled=true
New Line.mv_f0_l35 bus1=mv_f0_n138.1.2.3 bus2=mv_f0_n919.1.2.3 phases=3 length=0.176996 units=km linecode=lc_46-3ph enabled=true
New Line.mv_f0_l36 bus1=mv_f0_n1231.1.2.3 bus2=mv_f0_n2365.1.2.3 phases=3 length=0.131786 units=km linecode=lc_44-3ph enabled=true
New Line.mv_f0_l37 bus1=mv_f0_n2385.1.2.3 bus2=mv_f0_n785.1.2.3 phases=3 length=0.001846 units=km linecode=lc_244-3ph enabled=true
New Line.mv_f0_l38 bus1=mv_f0_n23.1 bus2=mv_f0_n39.1 phases=1 length=0.113216 units=km linecode=lc_244-1ph enabled=true
New Line.mv_f0_l39 bus1=mv_f0_n785.1.2.3 bus2=mv_f0_n1986.1.2.3 phases=3 length=0.002061 units=km linecode=lc_244-3ph enabled=true
New Line.mv_f0_l40 bus1=mv_f0_n2359.1.2.3 bus2=mv_f0_n2414.1.2.3 phases=3 length=0.001002 units=km linecode=lc_244-3ph enabled=true
New Line.mv_f0_l41 bus1=mv_f0_n2233.1 bus2=mv_f0_n3357.1 phases=1 length=0.084985 units=km linecode=lc_244-1ph enabled=true
New Line.mv_f0_l42 bus1=mv_f0_n47.1.2.3 bus2=mv_f0_n19.1.2.3 phases=3 length=0.046047 units=km linecode=lc_46-3ph enabled=true
New Line.mv_f0_l43 bus1=mv_f0_n3007.1.2.3 bus2=mv_f0_n2303.1.2.3 phases=3 length=0.113907 units=km linecode=lc_244-3ph enabled=true
New Line.mv_f0_l44 bus1=mv_f0_n3357.1 bus2=mv_f0_n2238.1 phases=1 length=0.148178 units=km linecode=lc_244-1ph enabled=true
New Line.mv_f0_l45 bus1=mv_f0_n116.1.2.3 bus2=mv_f0_n1056.1.2.3 phases=3 length=0.025176 units=km linecode=lc_2-3ph enabled=true
New Line.mv_f0_l46 bus1=mv_f0_n3628.1.2.3 bus2=mv_f0_n3652.1.2.3 phases=3 length=0.087593 units=km linecode=lc_46-3ph enabled=true
New Line.mv_f0_l47 bus1=mv_f0_n1743.1.2.3 bus2=mv_f0_n2196.1.2.3 phases=3 length=0.234891 units=km linecode=lc_44-3ph enabled=true
New Line.mv_f0_l48 bus1=mv_f0_n810.1.2.3 bus2=mv_f0_n1767.1.2.3 phases=3 length=0.05416 units=km linecode=lc_89-3ph enabled=true
New Line.mv_f0_l49 bus1=mv_f0_n3715.1.2.3 bus2=mv_f0_n2953.1.2.3 phases=3 length=0.062242 units=km linecode=lc_212-3ph enabled=true
New Line.mv_f0_l50 bus1=mv_f0_n2291.1 bus2=mv_f0_n3285.1 phases=1 length=0.134993 units=km linecode=lc_244-1ph enabled=true
New Line.mv_f0_l51 bus1=mv_f0_n1275.1.2.3 bus2=mv_f0_n1353.1.2.3 phases=3 length=0.082878 units=km linecode=lc_89-3ph enabled=true
New Line.mv_f0_l52 bus1=mv_f0_n2953.1.2.3 bus2=mv_f0_n2937.1.2.3 phases=3 length=0.086531 units=km linecode=lc_212-3ph enabled=true
New Line.mv_f0_l53 bus1=mv_f0_n39.1 bus2=mv_f0_n49.1 phases=1 length=0.155769 units=km linecode=lc_244-1ph enabled=true
New Line.mv_f0_l54 bus1=mv_f0_n1175.1.2.3 bus2=mv_f0_n1305.1.2.3 phases=3 length=0.001001 units=km linecode=lc_89-3ph enabled=true
New Line.mv_f0_l55 bus1=mv_f0_n3286.1.2.3 bus2=mv_f0_n3654.1.2.3 phases=3 length=0.034264 units=km linecode=lc_2-3ph enabled=true
New Line.mv_f0_l56 bus1=mv_f0_n3659.1.2.3 bus2=mv_f0_n3642.1.2.3 phases=3 length=0.076246 units=km linecode=lc_46-3ph enabled=true
New Line.mv_f0_l57 bus1=mv_f0_n1181.1.2.3 bus2=mv_f0_n1755.1.2.3 phases=3 length=0.302185 units=km linecode=lc_44-3ph enabled=true
New Line.mv_f0_l58 bus1=mv_f0_n2251.1.2.3 bus2=mv_f0_n2975.1.2.3 phases=3 length=0.38507 units=km linecode=lc_44-3ph enabled=true
New Line.mv_f0_l59 bus1=mv_f0_n966.1.2.3 bus2=mv_f0_n3107.1.2.3 phases=3 length=0.235784 units=km linecode=lc_44-3ph enabled=true
New Line.mv_f0_l60 bus1=mv_f0_n35.1.2.3 bus2=mv_f0_n57.1.2.3 phases=3 length=0.060505 units=km linecode=lc_46-3ph enabled=true
New Line.mv_f0_l61 bus1=mv_f0_n1755.1.2.3 bus2=mv_f0_n1743.1.2.3 phases=3 length=0.219197 units=km linecode=lc_44-3ph enabled=true
New Line.mv_f0_l62 bus1=mv_f0_n3547.1.2.3 bus2=mv_f0_n966.1.2.3 phases=3 length=0.227766 units=km linecode=lc_44-3ph enabled=true
New Line.mv_f0_l63 bus1=mv_f0_n2913.1.2.3 bus2=mv_f0_n2049.1.2.3 phases=3 length=0.301537 units=km linecode=lc_26-3ph enabled=true
New Line.mv_f0_l64 bus1=mv_f0_n49.1 bus2=mv_f0_n60.1 phases=1 length=0.044483 units=km linecode=lc_244-1ph enabled=true
New Line.mv_f0_l65 bus1=mv_f0_n654.1.2.3 bus2=mv_f0_n565.1.2.3 phases=3 length=0.042146 units=km linecode=lc_183-3ph enabled=true
New Line.mv_f0_l66 bus1=mv_f0_n60.1 bus2=mv_f0_n624.1 phases=1 length=0.405632 units=km linecode=lc_244-1ph enabled=true
New Line.mv_f0_l67 bus1=mv_f0_n3042.1 bus2=mv_f0_n3044.1 phases=1 length=0.28046 units=km linecode=lc_244-1ph enabled=true
New Line.mv_f0_l68 bus1=mv_f0_n1800.1.2.3 bus2=mv_f0_n1593.1.2.3 phases=3 length=0.171683 units=km linecode=lc_46-3ph enabled=true
New Line.mv_f0_l69 bus1=mv_f0_n2629.1.2.3 bus2=mv_f0_n1983.1.2.3 phases=3 length=0.065723 units=km linecode=lc_89-3ph enabled=true
New Line.mv_f0_l70 bus1=mv_f0_n3673.1.2.3 bus2=mv_f0_n3659.1.2.3 phases=3 length=0.092467 units=km linecode=lc_46-3ph enabled=true
New Line.mv_f0_l71 bus1=mv_f0_n2413.1.2.3 bus2=mv_f0_n47.1.2.3 phases=3 length=0.044042 units=km linecode=lc_46-3ph enabled=true
New Line.mv_f0_l72 bus1=mv_f0_n3227.1.2.3 bus2=mv_f0_n1800.1.2.3 phases=3 length=0.095081 units=km linecode=lc_46-3ph enabled=true
New Line.mv_f0_l73 bus1=mv_f0_n691.1.2.3 bus2=mv_f0_n1562.1.2.3 phases=3 length=0.060931 units=km linecode=lc_183-3ph enabled=true
New Line.mv_f0_l74 bus1=mv_f0_n3652.1.2.3 bus2=mv_f0_n3673.1.2.3 phases=3 length=0.08999 units=km linecode=lc_46-3ph enabled=true
New Line.mv_f0_l75 bus1=mv_f0_n817.1.2.3 bus2=mv_f0_n2413.1.2.3 phases=3 length=0.056935 units=km linecode=lc_46-3ph enabled=true
New Line.mv_f0_l76 bus1=mv_f0_n2127.1.2.3 bus2=mv_f0_n396.1.2.3 phases=3 length=0.060832 units=km linecode=lc_46-3ph enabled=true
New Line.mv_f0_l77 bus1=mv_f0_n159.1 bus2=mv_f0_n140.1 phases=1 length=0.075995 units=km linecode=lc_244-1ph enabled=true
New Line.mv_f0_l78 bus1=mv_f0_n93.1.2.3 bus2=mv_f0_n320.1.2.3 phases=3 length=0.089909 units=km linecode=lc_44-3ph enabled=true
New Line.mv_f0_l79 bus1=mv_f0_n1633.1 bus2=mv_f0_n1637.1 phases=1 length=0.277787 units=km linecode=lc_244-1ph enabled=true
New Line.mv_f0_l80 bus1=mv_f0_n1461.1 bus2=mv_f0_n1639.1 phases=1 length=0.033959 units=km linecode=lc_244-1ph enabled=true
New Line.mv_f0_l81 bus1=mv_f0_n3258.1.2.3 bus2=mv_f0_n1331.1.2.3 phases=3 length=0.325004 units=km linecode=lc_46-3ph enabled=true
New Line.mv_f0_l82 bus1=mv_f0_n1630.1 bus2=mv_f0_n159.1 phases=1 length=0.051796 units=km linecode=lc_244-1ph enabled=true
New Line.mv_f0_l83 bus1=mv_f0_n1363.1.2.3 bus2=mv_f0_n1366.1.2.3 phases=3 length=0.323104 units=km linecode=lc_44-3ph enabled=true
New Line.mv_f0_l84 bus1=mv_f0_n2995.1.2.3 bus2=mv_f0_n2642.1.2.3 phases=3 length=0.0054 units=km linecode=lc_2-3ph enabled=true
New Line.mv_f0_l85 bus1=mv_f0_n1624.1 bus2=mv_f0_n109.1 phases=1 length=0.161459 units=km linecode=lc_244-1ph enabled=true
New Line.mv_f0_l86 bus1=mv_f0_n2333.1 bus2=mv_f0_n2233.1 phases=1 length=0.290366 units=km linecode=lc_244-1ph enabled=true
New Line.mv_f0_l87 bus1=mv_f0_n3426.1 bus2=mv_f0_n3223.1 phases=1 length=0.168415 units=km linecode=lc_244-1ph enabled=true
New Line.mv_f0_l88 bus1=mv_f0_n2291.1 bus2=mv_f0_n2333.1 phases=1 length=0.191279 units=km linecode=lc_244-1ph enabled=true
New Line.mv_f0_l89 bus1=mv_f0_n2640.1.2.3 bus2=mv_f0_n1763.1.2.3 phases=3 length=0.107511 units=km linecode=lc_89-3ph enabled=true
New Line.mv_f0_l90 bus1=mv_f0_n57.1.2.3 bus2=mv_f0_n81.1.2.3 phases=3 length=0.057506 units=km linecode=lc_46-3ph enabled=true
New Line.mv_f0_l91 bus1=mv_f0_n17.1.2.3 bus2=mv_f0_n2000.1.2.3 phases=3 length=0.276074 units=km linecode=lc_46-3ph enabled=true
New Line.mv_f0_l92 bus1=mv_f0_n2208.1.2.3 bus2=mv_f0_n2280.1.2.3 phases=3 length=0.129618 units=km linecode=lc_46-3ph enabled=true
New Line.mv_f0_l93 bus1=mv_f0_n3042.1 bus2=mv_f0_n3070.1 phases=1 length=0.21986 units=km linecode=lc_244-1ph enabled=true
New Line.mv_f0_l94 bus1=mv_f0_n1905.1.2.3 bus2=mv_f0_n990.1.2.3 phases=3 length=0.051054 units=km linecode=lc_176-3ph enabled=true
New Line.mv_f0_l95 bus1=mv_f0_n1406.1.2.3 bus2=mv_f0_n1363.1.2.3 phases=3 length=0.090713 units=km linecode=lc_89-3ph enabled=true
New Line.mv_f0_l96 bus1=mv_f0_n2652.1.2.3 bus2=mv_f0_n1242.1.2.3 phases=3 length=0.02203 units=km linecode=lc_2-3ph enabled=true
New Line.mv_f0_l97 bus1=mv_f0_n2280.1.2.3 bus2=mv_f0_n1721.1.2.3 phases=3 length=0.072055 units=km linecode=lc_46-3ph enabled=true
New Line.mv_f0_l98 bus1=mv_f0_n3209.1.2.3 bus2=mv_f0_n999.1.2.3 phases=3 length=0.351687 units=km linecode=lc_46-3ph enabled=true
New Line.mv_f0_l99 bus1=mv_f0_n2081.1 bus2=mv_f0_n2291.1 phases=1 length=0.245228 units=km linecode=lc_244-1ph enabled=true
New Line.mv_f0_l100 bus1=mv_f0_n1773.1.2.3 bus2=mv_f0_n3681.1.2.3 phases=3 length=0.009037 units=km linecode=lc_2-3ph enabled=true
New Line.mv_f0_l101 bus1=mv_f0_n2161.1.2.3 bus2=mv_f0_n2198.1.2.3 phases=3 length=0.390879 units=km linecode=lc_44-3ph enabled=true
New Line.mv_f0_l102 bus1=mv_f0_n92.1.2.3 bus2=mv_f0_n817.1.2.3 phases=3 length=0.066122 units=km linecode=lc_46-3ph enabled=true
New Line.mv_f0_l103 bus1=mv_f0_n2326.1.2.3 bus2=mv_f0_n1773.1.2.3 phases=3 length=0.046145 units=km linecode=lc_2-3ph enabled=true
New Line.mv_f0_l104 bus1=mv_f0_n879.1.2.3 bus2=mv_f0_n552.1.2.3 phases=3 length=0.066932 units=km linecode=lc_183-3ph enabled=true
New Line.mv_f0_l105 bus1=mv_f0_n81.1.2.3 bus2=mv_f0_n92.1.2.3 phases=3 length=0.085826 units=km linecode=lc_46-3ph enabled=true
New Line.mv_f0_l106 bus1=mv_f0_n1011.1.2.3 bus2=mv_f0_n1012.1.2.3 phases=3 length=0.009001 units=km linecode=lc_183-3ph enabled=true
New Line.mv_f0_l107 bus1=mv_f0_n1568.1.2.3 bus2=mv_f0_n882.1.2.3 phases=3 length=0.049864 units=km linecode=lc_183-3ph enabled=true
New Line.mv_f0_l108 bus1=mv_f0_n1095.1.2.3 bus2=mv_f0_n2677.1.2.3 phases=3 length=0.029732 units=km linecode=lc_46-3ph enabled=true
New Line.mv_f0_l109 bus1=mv_f0_n1406.1.2.3 bus2=mv_f0_n1437.1.2.3 phases=3 length=0.283997 units=km linecode=lc_46-3ph enabled=true
New Line.mv_f0_l110 bus1=mv_f0_n1624.1 bus2=mv_f0_n131.1 phases=1 length=0.127626 units=km linecode=lc_244-1ph enabled=true
New Line.mv_f0_l111 bus1=mv_f0_n700.1.2.3 bus2=mv_f0_n359.1.2.3 phases=3 length=0.059838 units=km linecode=lc_46-3ph enabled=true
New Line.mv_f0_l112 bus1=mv_f0_n1749.1.2.3 bus2=mv_f0_n3350.1.2.3 phases=3 length=0.033652 units=km linecode=lc_186-3ph enabled=true
New Line.mv_f0_l113 bus1=mv_f0_n872.1.2.3 bus2=mv_f0_n849.1.2.3 phases=3 length=0.028857 units=km linecode=lc_168-3ph enabled=true
New Line.mv_f0_l114 bus1=mv_f0_n217.1.2.3 bus2=mv_f0_n972.1.2.3 phases=3 length=0.026228 units=km linecode=lc_26-3ph enabled=true
New Line.mv_f0_l115 bus1=mv_f0_n3011.1.2.3 bus2=mv_f0_n2161.1.2.3 phases=3 length=0.135584 units=km linecode=lc_44-3ph enabled=true
New Line.mv_f0_l116 bus1=mv_f0_n2795.1.2.3 bus2=mv_f0_n3096.1.2.3 phases=3 length=0.15189 units=km linecode=lc_244-3ph enabled=true
New Line.mv_f0_l117 bus1=mv_f0_n3792.1.2.3 bus2=mv_f0_n872.1.2.3 phases=3 length=0.089824 units=km linecode=lc_168-3ph enabled=true
New Line.mv_f0_l118 bus1=mv_f0_n1437.1.2.3 bus2=mv_f0_n1470.1.2.3 phases=3 length=0.397241 units=km linecode=lc_46-3ph enabled=true
New Line.mv_f0_l119 bus1=mv_f0_n3139.1.2.3 bus2=mv_f0_n3011.1.2.3 phases=3 length=0.184284 units=km linecode=lc_44-3ph enabled=true
New Line.mv_f0_l120 bus1=mv_f0_n1562.1.2.3 bus2=mv_f0_n599.1.2.3 phases=3 length=0.069654 units=km linecode=lc_183-3ph enabled=true
New Line.mv_f0_l121 bus1=mv_f0_n1390.1.2.3 bus2=mv_f0_n3000.1.2.3 phases=3 length=0.059294 units=km linecode=lc_212-3ph enabled=true
New Line.mv_f0_l122 bus1=mv_f0_n884.1.2.3 bus2=mv_f0_n654.1.2.3 phases=3 length=0.073457 units=km linecode=lc_183-3ph enabled=true
New Line.mv_f0_l123 bus1=mv_f0_n2675.1.2.3 bus2=mv_f0_n2663.1.2.3 phases=3 length=0.219978 units=km linecode=lc_2-3ph enabled=true
New Line.mv_f0_l124 bus1=mv_f0_n3836.1.2.3 bus2=mv_f0_n3210.1.2.3 phases=3 length=0.043246 units=km linecode=lc_212-3ph enabled=true
New Line.mv_f0_l125 bus1=mv_f0_n2715.1 bus2=mv_f0_n2825.1 phases=1 length=0.163284 units=km linecode=lc_244-1ph enabled=true
New Line.mv_f0_l126 bus1=mv_f0_n1672.1.2.3 bus2=mv_f0_n1700.1.2.3 phases=3 length=0.072768 units=km linecode=lc_186-3ph enabled=true
New Line.mv_f0_l127 bus1=mv_f0_n789.1.2.3 bus2=mv_f0_n1858.1.2.3 phases=3 length=0.078563 units=km linecode=lc_126-3ph enabled=true
New Line.mv_f0_l128 bus1=mv_f0_n3210.1.2.3 bus2=mv_f0_n510.1.2.3 phases=3 length=0.042994 units=km linecode=lc_212-3ph enabled=true
New Line.mv_f0_l129 bus1=mv_f0_n1858.1.2.3 bus2=mv_f0_n3130.1.2.3 phases=3 length=0.075556 units=km linecode=lc_126-3ph enabled=true
New Line.mv_f0_l130 bus1=mv_f0_n3009.1.2.3 bus2=mv_f0_n3641.1.2.3 phases=3 length=0.098622 units=km linecode=lc_212-3ph enabled=true
New Line.mv_f0_l131 bus1=mv_f0_n629.1.2.3 bus2=mv_f0_n899.1.2.3 phases=3 length=0.086158 units=km linecode=lc_183-3ph enabled=true
New Line.mv_f0_l132 bus1=mv_f0_n899.1.2.3 bus2=mv_f0_n884.1.2.3 phases=3 length=0.068818 units=km linecode=lc_183-3ph enabled=true
New Line.mv_f0_l133 bus1=mv_f0_n612.1.2.3 bus2=mv_f0_n3294.1.2.3 phases=3 length=0.112937 units=km linecode=lc_183-3ph enabled=true
New Line.mv_f0_l134 bus1=mv_f0_n3692.1.2.3 bus2=mv_f0_n2184.1.2.3 phases=3 length=0.090815 units=km linecode=lc_46-3ph enabled=true
New Line.mv_f0_l135 bus1=mv_f0_n3458.1.2.3 bus2=mv_f0_n1016.1.2.3 phases=3 length=0.066019 units=km linecode=lc_212-3ph enabled=true
New Line.mv_f0_l136 bus1=mv_f0_n2787.1.2.3 bus2=mv_f0_n2601.1.2.3 phases=3 length=0.040768 units=km linecode=lc_46-3ph enabled=true
New Line.mv_f0_l137 bus1=mv_f0_n1182.1.2.3 bus2=mv_f0_n2491.1.2.3 phases=3 length=0.043861 units=km linecode=lc_126-3ph enabled=true
New Line.mv_f0_l138 bus1=mv_f0_n599.1.2.3 bus2=mv_f0_n1301.1.2.3 phases=3 length=0.0654 units=km linecode=lc_183-3ph enabled=true
New Line.mv_f0_l139 bus1=mv_f0_n259.1.2.3 bus2=mv_f0_n1895.1.2.3 phases=3 length=0.060523 units=km linecode=lc_25-3ph enabled=true
New Line.mv_f0_l140 bus1=mv_f0_n968.1.2.3 bus2=mv_f0_n1076.1.2.3 phases=3 length=0.311176 units=km linecode=lc_46-3ph enabled=true
New Line.mv_f0_l141 bus1=mv_f0_n1895.1.2.3 bus2=mv_f0_n2193.1.2.3 phases=3 length=0.011146 units=km linecode=lc_25-3ph enabled=true
New Line.mv_f0_l142 bus1=mv_f0_n1301.1.2.3 bus2=mv_f0_n612.1.2.3 phases=3 length=0.088399 units=km linecode=lc_183-3ph enabled=true
New Line.mv_f0_l143 bus1=mv_f0_n749.1.2.3 bus2=mv_f0_n832.1.2.3 phases=3 length=0.110763 units=km linecode=lc_183-3ph enabled=true
New Line.mv_f0_l144 bus1=mv_f0_n3117.1.2.3 bus2=mv_f0_n3126.1.2.3 phases=3 length=0.083498 units=km linecode=lc_126-3ph enabled=true
New Line.mv_f0_l145 bus1=mv_f0_n3522.1.2.3 bus2=mv_f0_n3470.1.2.3 phases=3 length=0.076567 units=km linecode=lc_212-3ph enabled=true
New Line.mv_f0_l146 bus1=mv_f0_n317.1.2.3 bus2=mv_f0_n2607.1.2.3 phases=3 length=0.070608 units=km linecode=lc_141-3ph enabled=true
New Line.mv_f0_l147 bus1=mv_f0_n3470.1.2.3 bus2=mv_f0_n3458.1.2.3 phases=3 length=0.070783 units=km linecode=lc_212-3ph enabled=true
New Line.mv_f0_l148 bus1=mv_f0_n1675.1.2.3 bus2=mv_f0_n1876.1.2.3 phases=3 length=0.131231 units=km linecode=lc_46-3ph enabled=true
New Line.mv_f0_l149 bus1=mv_f0_n3027.1.2.3 bus2=mv_f0_n3009.1.2.3 phases=3 length=0.102493 units=km linecode=lc_212-3ph enabled=true
New Line.mv_f0_l150 bus1=mv_f0_n1907.1.2.3 bus2=mv_f0_n3764.1.2.3 phases=3 length=0.074881 units=km linecode=lc_46-3ph enabled=true
New Line.mv_f0_l151 bus1=mv_f0_n3764.1.2.3 bus2=mv_f0_n1910.1.2.3 phases=3 length=0.040967 units=km linecode=lc_46-3ph enabled=true
New Line.mv_f0_l152 bus1=mv_f0_n1031.1.2.3 bus2=mv_f0_n1047.1.2.3 phases=3 length=0.049979 units=km linecode=lc_183-3ph enabled=true
New Line.mv_f0_l153 bus1=mv_f0_n921.1.2.3 bus2=mv_f0_n580.1.2.3 phases=3 length=0.052862 units=km linecode=lc_183-3ph enabled=true
New Line.mv_f0_l154 bus1=mv_f0_n832.1.2.3 bus2=mv_f0_n854.1.2.3 phases=3 length=0.029082 units=km linecode=lc_183-3ph enabled=true
New Line.mv_f0_l155 bus1=mv_f0_n1730.1.2.3 bus2=mv_f0_n12.1.2.3 phases=3 length=0.053212 units=km linecode=lc_46-3ph enabled=true
New Line.mv_f0_l156 bus1=mv_f0_n3171.1.2.3 bus2=mv_f0_n387.1.2.3 phases=3 length=2.5e-05 units=km linecode=lc_141-3ph enabled=true
New Line.mv_f0_l157 bus1=mv_f0_n3663.1.2.3 bus2=mv_f0_n921.1.2.3 phases=3 length=0.074731 units=km linecode=lc_183-3ph enabled=true
New Line.mv_f0_l158 bus1=mv_f0_n3617.1.2.3 bus2=mv_f0_n3747.1.2.3 phases=3 length=0.026579 units=km linecode=lc_168-3ph enabled=true
New Line.mv_f0_l159 bus1=mv_f0_n2316.1.2.3 bus2=mv_f0_n1091.1.2.3 phases=3 length=0.323938 units=km linecode=lc_46-3ph enabled=true
New Line.mv_f0_l160 bus1=mv_f0_n1876.1.2.3 bus2=mv_f0_n1888.1.2.3 phases=3 length=0.194391 units=km linecode=lc_46-3ph enabled=true
New Line.mv_f0_l161 bus1=mv_f0_n3308.1.2.3 bus2=mv_f0_n1104.1.2.3 phases=3 length=0.503578 units=km linecode=lc_46-3ph enabled=true
New Line.mv_f0_l162 bus1=mv_f0_n1888.1.2.3 bus2=mv_f0_n1719.1.2.3 phases=3 length=0.154213 units=km linecode=lc_46-3ph enabled=true
New Line.mv_f0_l163 bus1=mv_f0_n832.1.2.3 bus2=mv_f0_n878.1.2.3 phases=3 length=0.049662 units=km linecode=lc_168-3ph enabled=true
New Line.mv_f0_l164 bus1=mv_f0_n3019.1.2.3 bus2=mv_f0_n3040.1.2.3 phases=3 length=0.124123 units=km linecode=lc_212-3ph enabled=true
New Line.mv_f0_l165 bus1=mv_f0_n2384.1.2.3 bus2=mv_f0_n330.1.2.3 phases=3 length=0.071972 units=km linecode=lc_141-3ph enabled=true
New Line.mv_f0_l166 bus1=mv_f0_n624.1 bus2=mv_f0_n1954.1 phases=1 length=0.200257 units=km linecode=lc_244-1ph enabled=true
New Line.mv_f0_l167 bus1=mv_f0_n2062.1.2.3 bus2=mv_f0_n698.1.2.3 phases=3 length=0.027697 units=km linecode=lc_183-3ph enabled=true
New Line.mv_f0_l168 bus1=mv_f0_n2845.1.2.3 bus2=mv_f0_n3623.1.2.3 phases=3 length=0.041544 units=km linecode=lc_2-3ph enabled=true
New Line.mv_f0_l169 bus1=mv_f0_n1058.1.2.3 bus2=mv_f0_n1158.1.2.3 phases=3 length=0.001001 units=km linecode=lc_183-3ph enabled=true
New Line.mv_f0_l170 bus1=mv_f0_n2818.1.2.3 bus2=mv_f0_n1996.1.2.3 phases=3 length=0.000999 units=km linecode=lc_44-3ph enabled=true
New Line.mv_f0_l171 bus1=mv_f0_n2795.1.2.3 bus2=mv_f0_n2836.1.2.3 phases=3 length=0.334758 units=km linecode=lc_244-3ph enabled=true
New Line.mv_f0_l172 bus1=mv_f0_n3623.1.2.3 bus2=mv_f0_n2857.1.2.3 phases=3 length=0.001693 units=km linecode=lc_2-3ph enabled=true
New Line.mv_f0_l173 bus1=mv_f0_n1235.1.2.3 bus2=mv_f0_n3326.1.2.3 phases=3 length=0.090235 units=km linecode=lc_46-3ph enabled=true
New Line.mv_f0_l174 bus1=mv_f0_n1954.1 bus2=mv_f0_n1980.1 phases=1 length=0.199449 units=km linecode=lc_244-1ph enabled=true
New Line.mv_f0_l175 bus1=mv_f0_n1011.1.2.3 bus2=mv_f0_n3745.1.2.3 phases=3 length=0.05601 units=km linecode=lc_183-3ph enabled=true
New Line.mv_f0_l176 bus1=mv_f0_n3040.1.2.3 bus2=mv_f0_n3050.1.2.3 phases=3 length=0.10039 units=km linecode=lc_212-3ph enabled=true
New Line.mv_f0_l177 bus1=mv_f0_n2872.1.2.3 bus2=mv_f0_n1918.1.2.3 phases=3 length=0.042705 units=km linecode=lc_46-3ph enabled=true
New Line.mv_f0_l178 bus1=mv_f0_n3232.1.2.3 bus2=mv_f0_n2472.1.2.3 phases=3 length=0.07318 units=km linecode=lc_244-3ph enabled=true
New Line.mv_f0_l179 bus1=mv_f0_n3811.1.2.3 bus2=mv_f0_n1011.1.2.3 phases=3 length=0.001475 units=km linecode=lc_183-3ph enabled=true
New Line.mv_f0_l180 bus1=mv_f0_n1041.1.2.3 bus2=mv_f0_n1155.1.2.3 phases=3 length=0.39691 units=km linecode=lc_46-3ph enabled=true
New Line.mv_f0_l181 bus1=mv_f0_n334.1.2.3 bus2=mv_f0_n3171.1.2.3 phases=3 length=0.083401 units=km linecode=lc_141-3ph enabled=true
New Line.mv_f0_l182 bus1=mv_f0_n1599.1 bus2=mv_f0_n942.1 phases=1 length=0.103342 units=km linecode=lc_244-1ph enabled=true
New Line.mv_f0_l183 bus1=mv_f0_n2035.1.2.3 bus2=mv_f0_n2629.1.2.3 phases=3 length=0.159134 units=km linecode=lc_89-3ph enabled=true
New Line.mv_f0_l184 bus1=mv_f0_n2836.1.2.3 bus2=mv_f0_n3181.1.2.3 phases=3 length=0.382415 units=km linecode=lc_244-3ph enabled=true
New Line.mv_f0_l185 bus1=mv_f0_n1080.1.2.3 bus2=mv_f0_n2895.1.2.3 phases=3 length=0.139117 units=km linecode=lc_46-3ph enabled=true
New Line.mv_f0_l186 bus1=mv_f0_n2728.1.2.3 bus2=mv_f0_n1554.1.2.3 phases=3 length=0.130971 units=km linecode=lc_46-3ph enabled=true
New Line.mv_f0_l187 bus1=mv_f0_n1202.1.2.3 bus2=mv_f0_n1183.1.2.3 phases=3 length=0.077469 units=km linecode=lc_46-3ph enabled=true
New Line.mv_f0_l188 bus1=mv_f0_n410.1.2.3 bus2=mv_f0_n456.1.2.3 phases=3 length=0.001002 units=km linecode=lc_168-3ph enabled=true
New Line.mv_f0_l189 bus1=mv_f0_n330.1.2.3 bus2=mv_f0_n347.1.2.3 phases=3 length=0.101326 units=km linecode=lc_141-3ph enabled=true
New Line.mv_f0_l190 bus1=mv_f0_n572.1.2.3 bus2=mv_f0_n2728.1.2.3 phases=3 length=0.070913 units=km linecode=lc_46-3ph enabled=true
New Line.mv_f0_l191 bus1=mv_f0_n1270.1.2.3 bus2=mv_f0_n3241.1.2.3 phases=3 length=0.101979 units=km linecode=lc_244-3ph enabled=true
New Line.mv_f0_l192 bus1=mv_f0_n347.1.2.3 bus2=mv_f0_n334.1.2.3 phases=3 length=0.064114 units=km linecode=lc_141-3ph enabled=true
New Line.mv_f0_l193 bus1=mv_f0_n1916.1.2.3 bus2=mv_f0_n1766.1.2.3 phases=3 length=0.087471 units=km linecode=lc_46-3ph enabled=true
New Line.mv_f0_l194 bus1=mv_f0_n942.1 bus2=mv_f0_n956.1 phases=1 length=0.223897 units=km linecode=lc_244-1ph enabled=true
New Line.mv_f0_l195 bus1=mv_f0_n832.1.2.3 bus2=mv_f0_n1416.1.2.3 phases=3 length=0.083038 units=km linecode=lc_183-3ph enabled=true
New Line.mv_f0_l196 bus1=mv_f0_n1848.1.2.3 bus2=mv_f0_n2032.1.2.3 phases=3 length=0.056037 units=km linecode=lc_183-3ph enabled=true
New Line.mv_f0_l197 bus1=mv_f0_n911.1.2.3 bus2=mv_f0_n1453.1.2.3 phases=3 length=0.120366 units=km linecode=lc_183-3ph enabled=true
New Line.mv_f0_l198 bus1=mv_f0_n1294.1.2.3 bus2=mv_f0_n2735.1.2.3 phases=3 length=0.032221 units=km linecode=lc_141-3ph enabled=true
New Line.mv_f0_l199 bus1=mv_f0_n2505.1.2.3 bus2=mv_f0_n1005.1.2.3 phases=3 length=0.094635 units=km linecode=lc_183-3ph enabled=true
...
